156
clr_R26-2_4_6_4_2_8.xyz
  C      1.256154     9.932645     0.000000
  C      0.546154    11.162401     0.000000
  C     -0.873846    11.162401     0.000000
  C     -1.583846     9.932645     0.000000
  C     -0.873846     8.702889     0.000000
  C      0.546154     8.702889     0.000000
  C      5.516154     9.932645     0.000000
  C      4.806154    11.162401     0.000000
  C      3.386154    11.162401     0.000000
  C      2.676154     9.932645     0.000000
  C      3.386154     8.702889     0.000000
  C      4.806154     8.702889     0.000000
  C      9.776154     2.554109     0.000000
  C      9.066154     3.783865     0.000000
  C      7.646154     3.783865     0.000000
  C      6.936154     2.554109     0.000000
  C      7.646154     1.324353     0.000000
  C      9.066154     1.324353     0.000000
  C      3.386154    -8.513696     0.000000
  C      2.676154    -7.283940     0.000000
  C      1.256154    -7.283940     0.000000
  C      0.546154    -8.513696     0.000000
  C      1.256154    -9.743452     0.000000
  C      2.676154    -9.743452     0.000000
  C     -5.133846    -8.513696     0.000000
  C     -5.843846    -7.283940     0.000000
  C     -7.263846    -7.283940     0.000000
  C     -7.973846    -8.513696     0.000000
  C     -7.263846    -9.743452     0.000000
  C     -5.843846    -9.743452     0.000000
  C     -7.263846    -4.824428     0.000000
  C     -7.973846    -3.594672     0.000000
  C     -9.393846    -3.594672     0.000000
  C    -10.103846    -4.824428     0.000000
  C     -9.393846    -6.054184     0.000000
  C     -7.973846    -6.054184     0.000000
  C      7.646154     6.243377     0.000000
  C      6.936154     7.473133     0.000000
  C      5.516154     7.473133     0.000000
  C      4.806154     6.243377     0.000000
  C      5.516154     5.013621     0.000000
  C      6.936154     5.013621     0.000000
  C      7.646154    -1.135159     0.000000
  C      6.936154     0.094597     0.000000
  C      5.516154     0.094597     0.000000
  C      4.806154    -1.135159     0.000000
  C      5.516154    -2.364916     0.000000
  C      6.936154    -2.364916     0.000000
  C      5.516154    -4.824428     0.000000
  C      4.806154    -3.594672     0.000000
  C      3.386154    -3.594672     0.000000
  C      2.676154    -4.824428     0.000000
  C      3.386154    -6.054184     0.000000
  C      4.806154    -6.054184     0.000000
  C     -0.873846    -8.513696     0.000000
  C     -1.583846    -7.283940     0.000000
  C     -3.003846    -7.283940     0.000000
  C     -3.713846    -8.513696     0.000000
  C     -3.003846    -9.743452     0.000000
  C     -1.583846    -9.743452     0.000000
  C     -5.133846    -1.135159     0.000000
  C     -5.843846     0.094597     0.000000
  C     -7.263846     0.094597     0.000000
  C     -7.973846    -1.135159     0.000000
  C     -7.263846    -2.364916     0.000000
  C     -5.843846    -2.364916     0.000000
  C     -3.003846     2.554109     0.000000
  C     -3.713846     3.783865     0.000000
  C     -5.133846     3.783865     0.000000
  C     -5.843846     2.554109     0.000000
  C     -5.133846     1.324353     0.000000
  C     -3.713846     1.324353     0.000000
  C     -0.873846     6.243377     0.000000
  C     -1.583846     7.473133     0.000000
  C     -3.003846     7.473133     0.000000
  C     -3.713846     6.243377     0.000000
  C     -3.003846     5.013621     0.000000
  C     -1.583846     5.013621     0.000000
  C     -3.003846     9.932645     0.000000
  C     -3.713846     8.702889     0.000000
  C      2.676154    12.392157     0.000000
  C      1.256154    12.392157     0.000000
  C      9.776154     5.013621     0.000000
  C      9.066154     6.243377     0.000000
  C      5.516154    -7.283940     0.000000
  C      4.806154    -8.513696     0.000000
  C     -5.133846   -10.973208     0.000000
  C     -3.713846   -10.973208     0.000000
  C    -10.103846    -7.283940     0.000000
  C     -9.393846    -8.513696     0.000000
  C      7.646154     8.702889     0.000000
  C      6.936154     9.932645     0.000000
  C      9.776154     0.094597     0.000000
  C      9.066154    -1.135159     0.000000
  C      7.646154    -3.594672     0.000000
  C      6.936154    -4.824428     0.000000
  C     -0.873846   -10.973208     0.000000
  C      0.546154   -10.973208     0.000000
  C     -9.393846    -1.135159     0.000000
  C    -10.103846    -2.364916     0.000000
  C     -7.263846     2.554109     0.000000
  C     -7.973846     1.324353     0.000000
  C     -5.133846     6.243377     0.000000
  C     -5.843846     5.013621     0.000000
  H     -1.418846    12.106369     0.000000
  H      1.091154     7.758921     0.000000
  H      5.351154    12.106369     0.000000
  H      2.841154     7.758921     0.000000
  H     10.866154     2.554109     0.000000
  H      5.846154     2.554109     0.000000
  H      0.711154    -6.339972     0.000000
  H      3.221154   -10.687420     0.000000
  H     -5.298846    -6.339972     0.000000
  H     -7.808846   -10.687420     0.000000
  H     -6.173846    -4.824428     0.000000
  H    -11.193846    -4.824428     0.000000
  H      3.716154     6.243377     0.000000
  H      4.971154     4.069653     0.000000
  H      4.971154     1.038564     0.000000
  H      3.716154    -1.135159     0.000000
  H      2.841154    -2.650704     0.000000
  H      1.586154    -4.824428     0.000000
  H     -1.038846    -6.339972     0.000000
  H     -3.548846    -6.339972     0.000000
  H     -4.043846    -1.135159     0.000000
  H     -5.298846    -3.308883     0.000000
  H     -1.913846     2.554109     0.000000
  H     -3.168846     0.380385     0.000000
  H      0.216154     6.243377     0.000000
  H     -1.038846     4.069653     0.000000
  H     -3.548846    10.876613     0.000000
  H     -4.803846     8.702889     0.000000
  H      3.221154    13.336125     0.000000
  H      0.711154    13.336125     0.000000
  H     10.866154     5.013621     0.000000
  H      9.611154     7.187345     0.000000
  H      6.606154    -7.283940     0.000000
  H      5.351154    -9.457664     0.000000
  H     -5.678846   -11.917176     0.000000
  H     -3.168846   -11.917176     0.000000
  H    -11.193846    -7.283940     0.000000
  H     -9.938846    -9.457664     0.000000
  H      8.736154     8.702889     0.000000
  H      7.481154    10.876613     0.000000
  H     10.866154     0.094597     0.000000
  H      9.611154    -2.079127     0.000000
  H      8.736154    -3.594672     0.000000
  H      7.481154    -5.768395     0.000000
  H     -1.418846   -11.917176     0.000000
  H      1.091154   -11.917176     0.000000
  H     -9.938846    -0.191192     0.000000
  H    -11.193846    -2.364916     0.000000
  H     -7.808846     3.498076     0.000000
  H     -9.063846     1.324353     0.000000
  H     -5.678846     7.187345     0.000000
  H     -6.933846     5.013621     0.000000
