 90
kek_R15-2_3_2_3_2_3.xyz
  C     -1.229756     6.390000     0.000000
  C     -2.459512     7.100000     0.000000
  C     -3.689268     6.390000     0.000000
  C     -3.689268     4.970000     0.000000
  C     -2.459512     4.260000     0.000000
  C     -1.229756     4.970000     0.000000
  C      3.689268     6.390000     0.000000
  C      2.459512     7.100000     0.000000
  C      1.229756     6.390000     0.000000
  C      1.229756     4.970000     0.000000
  C      2.459512     4.260000     0.000000
  C      3.689268     4.970000     0.000000
  C      7.378536    -0.000000     0.000000
  C      6.148780     0.710000     0.000000
  C      4.919024    -0.000000     0.000000
  C      4.919024    -1.420000     0.000000
  C      6.148780    -2.130000     0.000000
  C      7.378536    -1.420000     0.000000
  C      4.919024    -4.260000     0.000000
  C      3.689268    -3.550000     0.000000
  C      2.459512    -4.260000     0.000000
  C      2.459512    -5.680000     0.000000
  C      3.689268    -6.390000     0.000000
  C      4.919024    -5.680000     0.000000
  C     -2.459512    -4.260000     0.000000
  C     -3.689268    -3.550000     0.000000
  C     -4.919024    -4.260000     0.000000
  C     -4.919024    -5.680000     0.000000
  C     -3.689268    -6.390000     0.000000
  C     -2.459512    -5.680000     0.000000
  C     -4.919024    -0.000000     0.000000
  C     -6.148780     0.710000     0.000000
  C     -7.378536    -0.000000     0.000000
  C     -7.378536    -1.420000     0.000000
  C     -6.148780    -2.130000     0.000000
  C     -4.919024    -1.420000     0.000000
  C      0.000000     7.100000     0.000000
  C      0.000000     4.260000     0.000000
  C      4.919024     4.260000     0.000000
  C      2.459512     2.840000     0.000000
  C      3.689268     2.130000     0.000000
  C      4.919024     2.840000     0.000000
  C      6.148780     2.130000     0.000000
  C      3.689268     0.710000     0.000000
  C      3.689268    -2.130000     0.000000
  C      6.148780    -3.550000     0.000000
  C      1.229756    -3.550000     0.000000
  C      0.000000    -4.260000     0.000000
  C     -0.000000    -5.680000     0.000000
  C      1.229756    -6.390000     0.000000
  C     -1.229756    -3.550000     0.000000
  C     -1.229756    -6.390000     0.000000
  C     -3.689268    -2.130000     0.000000
  C     -6.148780    -3.550000     0.000000
  C     -3.689268     2.130000     0.000000
  C     -4.919024     2.840000     0.000000
  C     -6.148780     2.130000     0.000000
  C     -3.689268     0.710000     0.000000
  C     -4.919024     4.260000     0.000000
  C     -2.459512     2.840000     0.000000
  H     -2.459512     8.190000     0.000000
  H     -4.633236     6.935000     0.000000
  H      4.633236     6.935000     0.000000
  H      2.459512     8.190000     0.000000
  H      8.322504     0.545000     0.000000
  H      8.322504    -1.965000     0.000000
  H      3.689268    -7.480000     0.000000
  H      5.862992    -6.225000     0.000000
  H     -5.862992    -6.225000     0.000000
  H     -3.689268    -7.480000     0.000000
  H     -8.322504     0.545000     0.000000
  H     -8.322504    -1.965000     0.000000
  H      0.000000     8.190000     0.000000
  H      0.000000     3.170000     0.000000
  H      5.862992     4.805000     0.000000
  H      1.515544     2.295000     0.000000
  H      7.092748     2.675000     0.000000
  H      2.745301     0.165000     0.000000
  H      2.745301    -1.585000     0.000000
  H      7.092748    -4.095000     0.000000
  H      1.229756    -2.460000     0.000000
  H      1.229756    -7.480000     0.000000
  H     -1.229756    -2.460000     0.000000
  H     -1.229756    -7.480000     0.000000
  H     -2.745301    -1.585000     0.000000
  H     -7.092748    -4.095000     0.000000
  H     -7.092748     2.675000     0.000000
  H     -2.745301     0.165000     0.000000
  H     -5.862992     4.805000     0.000000
  H     -1.515544     2.295000     0.000000
