 90
kek_R15-1_3_3_2_2_4.xyz
  C      0.573886     7.526000     0.000000
  C     -0.655870     8.236000     0.000000
  C     -1.885626     7.526000     0.000000
  C     -1.885626     6.106000     0.000000
  C     -0.655870     5.396000     0.000000
  C      0.573886     6.106000     0.000000
  C      3.033398     7.526000     0.000000
  C      1.803642     8.236000     0.000000
  C      1.803642     5.396000     0.000000
  C      3.033398     6.106000     0.000000
  C      6.722667     1.136000     0.000000
  C      5.492910     1.846000     0.000000
  C      4.263154     1.136000     0.000000
  C      4.263154    -0.284000     0.000000
  C      5.492910    -0.994000     0.000000
  C      6.722667    -0.284000     0.000000
  C      3.033398    -5.254000     0.000000
  C      1.803642    -4.544000     0.000000
  C      0.573886    -5.254000     0.000000
  C      0.573886    -6.674000     0.000000
  C      1.803642    -7.384000     0.000000
  C      3.033398    -6.674000     0.000000
  C     -1.885626    -5.254000     0.000000
  C     -3.115382    -4.544000     0.000000
  C     -4.345138    -5.254000     0.000000
  C     -4.345138    -6.674000     0.000000
  C     -3.115382    -7.384000     0.000000
  C     -1.885626    -6.674000     0.000000
  C     -4.345138    -0.994000     0.000000
  C     -5.574894    -0.284000     0.000000
  C     -6.804650    -0.994000     0.000000
  C     -6.804650    -2.414000     0.000000
  C     -5.574894    -3.124000     0.000000
  C     -4.345138    -2.414000     0.000000
  C      4.263154     5.396000     0.000000
  C      1.803642     3.976000     0.000000
  C      3.033398     3.266000     0.000000
  C      4.263154     3.976000     0.000000
  C      5.492910     3.266000     0.000000
  C      3.033398     1.846000     0.000000
  C      3.033398    -0.994000     0.000000
  C      3.033398    -2.414000     0.000000
  C      4.263154    -3.124000     0.000000
  C      5.492910    -2.414000     0.000000
  C      1.803642    -3.124000     0.000000
  C      4.263154    -4.544000     0.000000
  C     -0.655870    -4.544000     0.000000
  C     -0.655870    -7.384000     0.000000
  C     -3.115382    -3.124000     0.000000
  C     -5.574894    -4.544000     0.000000
  C     -3.115382     1.136000     0.000000
  C     -4.345138     1.846000     0.000000
  C     -5.574894     1.136000     0.000000
  C     -3.115382    -0.284000     0.000000
  C     -1.885626     3.266000     0.000000
  C     -3.115382     3.976000     0.000000
  C     -4.345138     3.266000     0.000000
  C     -1.885626     1.846000     0.000000
  C     -3.115382     5.396000     0.000000
  C     -0.655870     3.976000     0.000000
  H     -0.655870     9.326000     0.000000
  H     -2.829594     8.071000     0.000000
  H      3.977366     8.071000     0.000000
  H      1.803642     9.326000     0.000000
  H      7.666634     1.681000     0.000000
  H      7.666634    -0.829000     0.000000
  H      1.803642    -8.474000     0.000000
  H      3.977366    -7.219000     0.000000
  H     -5.289106    -7.219000     0.000000
  H     -3.115382    -8.474000     0.000000
  H     -7.748618    -0.449000     0.000000
  H     -7.748618    -2.959000     0.000000
  H      5.207122     5.941000     0.000000
  H      1.336658     2.991101     0.000000
  H      6.436878     3.811000     0.000000
  H      2.089431     1.301000     0.000000
  H      2.089431    -0.449000     0.000000
  H      6.436878    -2.959000     0.000000
  H      0.859675    -2.579000     0.000000
  H      5.207122    -5.089000     0.000000
  H     -0.655870    -3.454000     0.000000
  H     -0.655870    -8.474000     0.000000
  H     -2.171414    -2.579000     0.000000
  H     -6.518862    -5.089000     0.000000
  H     -6.518862     1.681000     0.000000
  H     -2.171414    -0.829000     0.000000
  H     -5.289106     3.811000     0.000000
  H     -0.941658     1.301000     0.000000
  H     -4.059350     5.941000     0.000000
  H     -0.188885     2.991101     0.000000
