252
kinf_R42-2_4_3_4_2_5-3_3_4_5_1_6_d1.xyz
  C      3.689268    13.490000    -0.213333
  C      2.459512    14.200000    -0.320000
  C      1.229756    13.490000    -0.320000
  C      1.229756    12.070000    -0.426667
  C      2.459512    11.360000    -0.426667
  C      3.689268    12.070000    -0.213333
  C     11.067805    13.490000     0.320000
  C      9.838049    14.200000     0.320000
  C      8.608293    13.490000     0.213333
  C      8.608293    12.070000     0.213333
  C      9.838049    11.360000     0.426667
  C     11.067805    12.070000     0.426667
  C     15.986829     4.970000     1.173333
  C     14.757073     5.680000     1.066667
  C     13.527317     4.970000     1.066667
  C     13.527317     3.550000     1.280000
  C     14.757073     2.840000     1.280000
  C     15.986829     3.550000     1.173333
  C     13.527317     0.710000     1.493333
  C     12.297561     1.420000     1.493333
  C     11.067805     0.710000    -1.600000
  C     11.067805    -0.710000    -1.600000
  C     12.297561    -1.420000     1.600000
  C     13.527317    -0.710000     1.600000
  C      1.229756     0.710000    -1.600000
  C      0.000000     1.420000    -1.493333
  C     -1.229756     0.710000    -1.493333
  C     -1.229756    -0.710000    -1.600000
  C      0.000000    -1.420000    -1.600000
  C      1.229756    -0.710000    -1.600000
  C     -1.229756     4.970000    -1.066667
  C     -2.459512     5.680000    -1.066667
  C     -3.689268     4.970000    -1.173333
  C     -3.689268     3.550000    -1.173333
  C     -2.459512     2.840000    -1.280000
  C     -1.229756     3.550000    -1.280000
  C      6.148780    13.490000     0.000000
  C      4.919024    14.200000    -0.106667
  C      4.919024    11.360000    -0.106667
  C      6.148780    12.070000     0.000000
  C      7.378536    14.200000     0.106667
  C      7.378536    11.360000     0.106667
  C     12.297561    11.360000     0.533333
  C      9.838049     9.940000     0.533333
  C     11.067805     9.230000     0.640000
  C     12.297561     9.940000     0.640000
  C     13.527317     9.230000     0.746667
  C     11.067805     7.810000     0.746667
  C     12.297561     7.100000     0.853333
  C     13.527317     7.810000     0.853333
  C     14.757073     7.100000     0.960000
  C     12.297561     5.680000     0.960000
  C     12.297561     2.840000     1.386667
  C     14.757073     1.420000     1.386667
  C      9.838049     1.420000    -1.600000
  C      8.608293     0.710000    -1.600000
  C      8.608293    -0.710000    -1.600000
  C      9.838049    -1.420000    -1.600000
  C      7.378536     1.420000    -1.600000
  C      6.148780     0.710000    -1.600000
  C      6.148780    -0.710000    -1.600000
  C      7.378536    -1.420000    -1.600000
  C      4.919024     1.420000    -1.600000
  C      3.689268     0.710000    -1.600000
  C      3.689268    -0.710000    -1.600000
  C      4.919024    -1.420000    -1.600000
  C      2.459512     1.420000    -1.600000
  C      2.459512    -1.420000    -1.600000
  C      0.000000     2.840000    -1.386667
  C     -2.459512     1.420000    -1.386667
  C      0.000000     7.100000    -0.853333
  C     -1.229756     7.810000    -0.853333
  C     -2.459512     7.100000    -0.960000
  C      0.000000     5.680000    -0.960000
  C      1.229756     9.230000    -0.640000
  C      0.000000     9.940000    -0.640000
  C     -1.229756     9.230000    -0.746667
  C      1.229756     7.810000    -0.746667
  C      0.000000    11.360000    -0.533333
  C      2.459512     9.940000    -0.533333
  C      3.689268     0.710000     1.600000
  C      2.459512     1.420000     1.600000
  C      1.229756     0.710000     1.600000
  C      1.229756    -0.710000     1.515789
  C      2.459512    -1.420000     1.515789
  C      3.689268    -0.710000     1.600000
  C     11.067805     0.710000     1.600000
  C      9.838049     1.420000     1.600000
  C      8.608293     0.710000     1.600000
  C      8.608293    -0.710000     1.600000
  C      9.838049    -1.420000     1.600000
  C     11.067805    -0.710000     1.600000
  C     14.757073    -5.680000    -1.094737
  C     13.527317    -4.970000    -1.178947
  C     12.297561    -5.680000    -1.178947
  C     12.297561    -7.100000    -1.010526
  C     13.527317    -7.810000    -1.010526
  C     14.757073    -7.100000    -1.094737
  C      9.838049   -14.200000    -0.505263
  C      8.608293   -13.490000    -0.505263
  C      7.378536   -14.200000    -0.336842
  C      7.378536   -15.620000    -0.336842
  C      8.608293   -16.330000    -0.421053
  C      9.838049   -15.620000    -0.421053
  C     -2.459512   -14.200000     0.336842
  C     -3.689268   -13.490000     0.505263
  C     -4.919024   -14.200000     0.505263
  C     -4.919024   -15.620000     0.421053
  C     -3.689268   -16.330000     0.421053
  C     -2.459512   -15.620000     0.336842
  C     -3.689268   -12.070000     0.673684
  C     -4.919024   -11.360000     0.673684
  C     -6.148780   -12.070000     0.589474
  C     -6.148780   -13.490000     0.589474
  C      6.148780     0.710000     1.600000
  C      4.919024     1.420000     1.600000
  C      4.919024    -1.420000     1.600000
  C      6.148780    -0.710000     1.600000
  C      7.378536     1.420000     1.600000
  C      7.378536    -1.420000     1.600000
  C     12.297561    -1.420000    -1.431579
  C      9.838049    -2.840000    -1.431579
  C     11.067805    -3.550000    -1.347368
  C     12.297561    -2.840000    -1.347368
  C     13.527317    -3.550000    -1.263158
  C     11.067805    -4.970000    -1.263158
  C     11.067805    -7.810000    -0.926316
  C     11.067805    -9.230000    -0.842105
  C     12.297561    -9.940000    -0.842105
  C     13.527317    -9.230000    -0.926316
  C      9.838049    -9.940000    -0.757895
  C      9.838049   -11.360000    -0.673684
  C     11.067805   -12.070000    -0.673684
  C     12.297561   -11.360000    -0.757895
  C      8.608293   -12.070000    -0.589474
  C     11.067805   -13.490000    -0.589474
  C      6.148780   -13.490000    -0.252632
  C      4.919024   -14.200000    -0.168421
  C      4.919024   -15.620000    -0.168421
  C      6.148780   -16.330000    -0.252632
  C      3.689268   -13.490000    -0.084211
  C      2.459512   -14.200000     0.000000
  C      2.459512   -15.620000     0.000000
  C      3.689268   -16.330000    -0.084211
  C      1.229756   -13.490000     0.084211
  C     -0.000000   -14.200000     0.168421
  C     -0.000000   -15.620000     0.168421
  C      1.229756   -16.330000     0.084211
  C     -1.229756   -13.490000     0.252632
  C     -1.229756   -16.330000     0.252632
  C     -2.459512    -9.940000     0.842105
  C     -3.689268    -9.230000     0.842105
  C     -4.919024    -9.940000     0.757895
  C     -2.459512   -11.360000     0.757895
  C     -1.229756    -7.810000     1.010526
  C     -2.459512    -7.100000     1.010526
  C     -3.689268    -7.810000     0.926316
  C     -1.229756    -9.230000     0.926316
  C     -0.000000    -5.680000     1.178947
  C     -1.229756    -4.970000     1.178947
  C     -2.459512    -5.680000     1.094737
  C     -0.000000    -7.100000     1.094737
  C      1.229756    -3.550000     1.347368
  C     -0.000000    -2.840000     1.347368
  C     -1.229756    -3.550000     1.263158
  C      1.229756    -4.970000     1.263158
  C     -0.000000    -1.420000     1.431579
  C      2.459512    -2.840000     1.431579
  H      2.462160    15.286943    -0.401533
  H      0.287112    14.031178    -0.238467
  H     12.010449    14.031178     0.238467
  H      9.835400    15.286943     0.401533
  H     16.926825     5.515765     1.254867
  H     16.926825     3.004235     1.091800
  H     12.011772     1.255000    -1.600000
  H     12.297561    -2.510000     1.600000
  H     14.469961    -1.251178     1.681533
  H     -2.172401    -1.251178    -1.681533
  H     -0.000000    -2.510000    -1.600000
  H     -4.629264     5.515765    -1.254867
  H     -4.629264     3.004235    -1.091800
  H      4.919024    15.290000    -0.106667
  H      4.919024    10.270000    -0.106667
  H      7.378536    15.290000     0.106667
  H      7.378536    10.270000     0.106667
  H     13.241528    11.905000     0.533333
  H      8.894081     9.395000     0.533333
  H     14.471284     9.775000     0.746667
  H     10.123837     7.265000     0.746667
  H     15.701041     7.645000     0.960000
  H     11.353593     5.135000     0.960000
  H     11.353593     3.385000     1.386667
  H     15.701041     0.875000     1.386667
  H      9.838049     2.510000    -1.600000
  H      7.378536     2.510000    -1.600000
  H      7.378536    -2.510000    -1.600000
  H      4.919024     2.510000    -1.600000
  H      4.919024    -2.510000    -1.600000
  H      2.459512     2.510000    -1.600000
  H      2.459512    -2.510000    -1.600000
  H      0.943968     3.385000    -1.386667
  H     -3.403480     0.875000    -1.386667
  H     -3.403480     7.645000    -0.960000
  H      0.943968     5.135000    -0.960000
  H     -2.173724     9.775000    -0.746667
  H      2.173724     7.265000    -0.746667
  H     -0.943968    11.905000    -0.533333
  H      3.403480     9.395000    -0.533333
  H      2.459512     2.510000     1.600000
  H      0.286615     1.252613     1.664471
  H      9.838049     2.510000     1.600000
  H      9.838049    -2.510000     1.600000
  H     15.698560    -5.134522    -1.030266
  H     15.698560    -7.645478    -1.159207
  H      8.606638   -17.418090    -0.485523
  H     10.781190   -16.162613    -0.356582
  H     -5.862165   -16.162613     0.356582
  H     -3.687614   -17.418090     0.485523
  H     -7.090267   -11.524522     0.525003
  H     -7.090267   -14.035478     0.653944
  H      4.919024     2.510000     1.600000
  H      4.919024    -2.510000     1.600000
  H      7.378536     2.510000     1.600000
  H      7.378536    -2.510000     1.600000
  H     13.237425    -0.871679    -1.367557
  H      8.893256    -3.379786    -1.367557
  H     14.471284    -3.005000    -1.263158
  H     10.123837    -5.515000    -1.263158
  H     10.123837    -7.265000    -0.926316
  H     14.471284    -9.775000    -0.926316
  H      8.894081    -9.395000    -0.757895
  H     13.241528   -11.905000    -0.757895
  H      7.664325   -11.525000    -0.589474
  H     12.011772   -14.035000    -0.589474
  H      6.148780   -12.400000    -0.252632
  H      6.148780   -17.420000    -0.252632
  H      3.689268   -12.400000    -0.084211
  H      3.689268   -17.420000    -0.084211
  H      1.229756   -12.400000     0.084211
  H      1.229756   -17.420000     0.084211
  H     -1.019894   -12.486807    -0.118397
  H     -1.229756   -17.420000     0.252632
  H     -5.862992    -9.395000     0.757895
  H     -1.485791   -11.679850     1.128924
  H     -4.633236    -7.265000     0.926316
  H     -0.285788    -9.775000     0.926316
  H     -3.403480    -5.135000     1.094737
  H      0.943968    -7.645000     1.094737
  H     -2.173724    -3.005000     1.263158
  H      2.173724    -5.515000     1.263158
  H     -0.943968    -0.875000     1.431579
  H      3.403480    -3.385000     1.431579
