168
ccinf_R28-1_1_1_1_1_1-6_2_4_4_4_2_d-6.xyz
  C      3.550000     3.689268     0.960000
  C      2.840000     4.919024     0.960000
  C      1.420000     4.919024     0.640000
  C      0.710000     3.689268     0.640000
  C      1.420000     2.459512     1.280000
  C      2.840000     2.459512     1.280000
  C      0.710000     6.148780     0.320000
  C     -0.710000     6.148780     0.320000
  C     -1.420000     4.919024     0.000000
  C     -0.710000     3.689268     0.000000
  C     -2.840000     4.919024    -0.320000
  C     -3.550000     3.689268    -0.320000
  C     -2.840000     2.459512    -0.640000
  C     -1.420000     2.459512    -0.640000
  C     -0.710000     1.229756    -1.280000
  C     -3.550000     1.229756    -0.960000
  C     -2.840000     0.000000    -0.960000
  C     -1.420000     0.000000    -1.280000
  C      1.420000    -0.000000    -1.600000
  C      0.710000     1.229756    -1.600000
  C     -0.710000    -1.229756    -1.600000
  C      0.710000    -1.229756    -1.600000
  C      3.550000     1.229756     1.600000
  C      2.840000     0.000000     1.600000
  C    -11.360000    -0.000000     1.600000
  C    -12.070000     1.229756     1.600000
  C    -13.490000     1.229756     1.600000
  C    -14.200000    -0.000000     1.600000
  C    -13.490000    -1.229756     1.600000
  C    -12.070000    -1.229756     1.600000
  C      1.420000    -0.000000     1.600000
  C      0.710000     1.229756     1.600000
  C     -0.710000     1.229756     1.600000
  C     -1.420000    -0.000000     1.600000
  C     -0.710000    -1.229756     1.600000
  C      0.710000    -1.229756     1.600000
  C      3.550000    -3.689268    -1.200000
  C      2.840000    -2.459512    -1.400000
  C      1.420000    -2.459512    -1.400000
  C      0.710000    -3.689268    -1.200000
  C      1.420000    -4.919024    -1.200000
  C      2.840000    -4.919024    -1.200000
  C     -0.710000   -11.067805    -0.600000
  C     -1.420000    -9.838049    -0.600000
  C     -2.840000    -9.838049    -0.400000
  C     -3.550000   -11.067805    -0.400000
  C     -2.840000   -12.297561    -0.400000
  C     -1.420000   -12.297561    -0.400000
  C     -9.230000   -11.067805     0.200000
  C     -9.940000    -9.838049     0.400000
  C    -11.360000    -9.838049     0.400000
  C    -12.070000   -11.067805     0.400000
  C    -11.360000   -12.297561     0.400000
  C     -9.940000   -12.297561     0.200000
  C    -13.490000    -3.689268     1.200000
  C    -14.200000    -2.459512     1.200000
  C    -15.620000    -2.459512     1.200000
  C    -16.330000    -3.689268     1.200000
  C    -15.620000    -4.919024     1.000000
  C    -14.200000    -4.919024     1.000000
  C     -7.100000    -0.000000     1.600000
  C     -7.810000     1.229756     1.600000
  C     -9.230000     1.229756     1.600000
  C     -9.940000    -0.000000     1.600000
  C     -9.230000    -1.229756     1.600000
  C     -7.810000    -1.229756     1.600000
  C     -2.840000    -0.000000     1.600000
  C     -3.550000     1.229756     1.600000
  C     -4.970000     1.229756     1.600000
  C     -5.680000    -0.000000     1.600000
  C     -4.970000    -1.229756     1.600000
  C     -3.550000    -1.229756     1.600000
  C      1.420000    -7.378536    -1.000000
  C      0.710000    -6.148780    -1.000000
  C     -0.710000    -6.148780    -0.800000
  C     -1.420000    -7.378536    -0.800000
  C     -0.710000    -8.608293    -0.800000
  C      0.710000    -8.608293    -0.800000
  C     -4.970000   -11.067805    -0.200000
  C     -5.680000    -9.838049     0.000000
  C     -7.100000    -9.838049     0.000000
  C     -7.810000   -11.067805     0.000000
  C     -7.100000   -12.297561     0.000000
  C     -5.680000   -12.297561    -0.200000
  C    -11.360000    -7.378536     0.800000
  C    -12.070000    -6.148780     0.800000
  C    -13.490000    -6.148780     0.800000
  C    -14.200000    -7.378536     0.800000
  C    -13.490000    -8.608293     0.600000
  C    -12.070000    -8.608293     0.600000
  C    -15.620000     0.000000     1.400000
  C    -16.330000    -1.229756     1.400000
  C     -1.420000     2.459512     1.600000
  C     -2.840000     2.459512     1.600000
  C      3.550000    -1.229756    -1.400000
  C      2.840000    -0.000000    -1.400000
  C      1.420000    -9.838049    -0.600000
  C      0.710000   -11.067805    -0.600000
  C     -9.230000   -13.527317     0.200000
  C     -7.810000   -13.527317     0.200000
  C    -16.330000    -6.148780     1.000000
  C    -15.620000    -7.378536     1.000000
  C     -9.940000     2.459512     1.600000
  C    -11.360000     2.459512     1.600000
  C     -5.680000     2.459512     1.600000
  C     -7.100000     2.459512     1.600000
  C      3.550000    -6.148780    -1.000000
  C      2.840000    -7.378536    -1.000000
  C     -4.970000   -13.527317    -0.200000
  C     -3.550000   -13.527317    -0.200000
  C    -14.200000    -9.838049     0.600000
  C    -13.490000   -11.067805     0.600000
  H      4.613734     3.666453     0.723254
  H      3.352108     5.851653     1.196746
  H      1.261626     7.058593     0.083254
  H     -1.261626     7.058593     0.556746
  H     -3.352108     5.851653    -0.556746
  H     -4.613734     3.666453    -0.083254
  H     -4.613734     1.252572    -1.196746
  H     -3.352108    -0.932629    -0.723254
  H      1.222108     2.162385    -1.836746
  H     -1.261626    -2.139569    -1.836746
  H      4.613734     1.252572     1.836746
  H      3.385000    -0.943968     1.600000
  H    -14.035000     2.173724     1.600000
  H    -11.525000    -2.173724     1.600000
  H     -1.255000    -2.173724     1.600000
  H      1.255000    -2.173724     1.600000
  H      4.629411    -3.680087    -1.048717
  H     -0.369411    -3.680087    -1.048717
  H     -3.371755    -8.898660    -0.248717
  H     -0.872343   -13.227768    -0.248717
  H     -9.392343    -8.907841     0.551283
  H    -11.891755   -13.236949     0.551283
  H    -12.410589    -3.698449     1.351283
  H    -17.409411    -3.698449     1.351283
  H     -9.775000    -2.173724     1.600000
  H     -7.265000    -2.173724     1.600000
  H     -5.515000    -2.173724     1.600000
  H     -3.005000    -2.173724     1.600000
  H     -1.241755    -5.209392    -0.648717
  H     -2.510000    -7.378536    -0.800000
  H     -5.132343    -8.907841     0.151283
  H     -7.645000    -8.894081     0.000000
  H    -10.280589    -7.387718     0.951283
  H    -11.525000    -5.204813     0.800000
  H    -16.151755     0.939388     1.248717
  H    -17.409411    -1.238937     1.551283
  H     -0.875000     3.403480     1.600000
  H     -3.385000     3.403480     1.600000
  H      4.640000    -1.229756    -1.400000
  H      3.371755     0.939388    -1.248717
  H      2.499411    -9.828867    -0.448717
  H      1.255000   -12.011772    -0.600000
  H     -9.775000   -14.471284     0.200000
  H     -7.262343   -14.457524     0.351283
  H    -17.420000    -6.148780     1.000000
  H    -16.151755    -8.317925     1.151283
  H     -9.395000     3.403480     1.600000
  H    -11.905000     3.403480     1.600000
  H     -5.135000     3.403480     1.600000
  H     -7.645000     3.403480     1.600000
  H      4.629411    -6.139599    -0.848717
  H      3.385000    -8.322504    -1.000000
  H     -5.515000   -14.471284    -0.200000
  H     -3.002343   -14.457524    -0.048717
  H    -15.290000    -9.838049     0.600000
  H    -14.021755   -12.007193     0.751283
